* File: Neuron_OPT.pex.netlist.pex
* Created: Mon Dec  8 03:35:16 2025
* Program "Calibre xACT"
* Version "v2024.4_39.16"
* Nominal Temperature: 25C
* Circuit Temperature: 27C
* 
.subckt PM_NEURON_OPT_VSS 1 3 7 8 10 14 17 20 21 22 23 24 26 29 33 37 38 39 40
+ 104 109 120 135 155 168 179 187 212 254 295 306 323 343 359 367 375 401 409
+ 434 459 468 481 485 509 517 529 549 558 571 575 583 607 615 623 631 657 680
+ 681 682 683 684 685 686 687 688 689 690 691 692 693 694 695 696 697 698 699
+ 700 701 702 703 704 705 706 707 708 709 710 711 712 713 714 715 716 717 718
+ 719 720 721 722 723 724 725 726 727 728 729 730 851 852 854 973 974 975 976
+ 977 978 979 980 981 982 983 984 985 986 987 988 989 990 991 992 993 994 995
+ 996 997 998 999
c805 999 0 4.26202e-19
c806 998 0 0.00427981f
c807 997 0 0.00186525f
c808 996 0 0.00608515f
c809 994 0 4.76163e-19
c810 993 0 0.00624614f
c811 989 0 3.3733e-19
c812 987 0 0.00103125f
c813 986 0 0.00163511f
c814 985 0 0.00101657f
c815 982 0 0.00133693f
c816 981 0 2.76382e-19
c817 977 0 0.00479438f
c818 974 0 0.0011043f
c819 973 0 0.00239457f
c820 730 0 0.00164109f
c821 729 0 0.00168371f
c822 726 0 0.0279473f
c823 725 0 0.0281669f
c824 724 0 0.0279557f
c825 723 0 0.00174282f
c826 720 0 0.0279401f
c827 719 0 0.0279554f
c828 718 0 0.0277161f
c829 717 0 0.0277841f
c830 715 0 0.00164519f
c831 712 0 0.0279556f
c832 711 0 0.0279401f
c833 710 0 0.0276628f
c834 709 0 0.0280431f
c835 707 0 0.0279415f
c836 706 0 0.0278343f
c837 705 0 0.0276628f
c838 704 0 0.027941f
c839 701 0 0.0279381f
c840 700 0 0.0279557f
c841 699 0 0.0276445f
c842 698 0 0.028012f
c843 697 0 0.00160686f
c844 695 0 0.00162239f
c845 694 0 0.00164477f
c846 691 0 0.0279554f
c847 690 0 0.0279533f
c848 689 0 0.0280285f
c849 688 0 0.0279557f
c850 687 0 0.00166788f
c851 686 0 0.0016413f
c852 683 0 0.0277993f
c853 682 0 0.0279768f
c854 681 0 0.0280359f
c855 680 0 0.0277755f
c856 657 0 0.00190944f
c857 631 0 9.09636e-19
c858 623 0 0.0308028f
c859 615 0 0.00271413f
c860 607 0 0.00289455f
c861 583 0 0.0308747f
c862 575 0 0.00160741f
c863 571 0 0.0277549f
c864 558 0 0.00286806f
c865 549 0 0.00249571f
c866 529 0 0.0277508f
c867 517 0 0.00173696f
c868 509 0 0.00175009f
c869 485 0 0.0310953f
c870 481 0 0.0277318f
c871 468 0 0.00182053f
c872 459 0 0.00302486f
c873 434 0 0.00158119f
c874 409 0 0.00161691f
c875 401 0 0.00250724f
c876 375 0 0.00137822f
c877 367 0 0.00162423f
c878 359 0 0.00279401f
c879 343 0 0.0029295f
c880 323 0 0.0199868f
c881 306 0 0.0243314f
c882 295 0 0.00614634f
c883 254 0 0.00739648f
c884 212 0 0.0080259f
c885 187 0 0.0331707f
c886 179 0 0.00152517f
c887 168 0 0.0827195f
c888 155 0 0.00261585f
c889 135 0 0.00277864f
c890 120 0 0.00159478f
c891 109 0 0.00665268f
c892 104 0 0.00921216f
c893 40 0 0.0398596f
c894 39 0 0.00268894f
c895 38 0 0.00308993f
c896 37 0 0.0437016f
c897 33 0 0.00163311f
c898 29 0 0.00310779f
c899 26 0 0.00167316f
c900 24 0 0.00273055f
c901 23 0 0.00750872f
c902 22 0 0.0266235f
c903 21 0 0.00143041f
c904 20 0 0.0028854f
c905 17 0 0.0470086f
c906 14 0 0.00274636f
c907 10 0 0.0306431f
c908 8 0 0.00284429f
c909 7 0 0.00282661f
c910 3 0 0.00222509f
c911 1 0 0.00207534f
r912 1387 1388 10.4935
r913 1386 1387 2.09871
r914 1385 1386 4.19742
r915 1381 1382 14.691
r916 1380 1381 6.29612
r917 1379 1385 4.19742
r918 1379 1382 12.5922
r919 1376 1377 4.19742
r920 1375 1380 4.19742
r921 1375 1377 4.19742
r922 1370 1376 4.19742
r923 1366 1367 10.4935
r924 1365 1366 2.09871
r925 1364 1365 4.19742
r926 1360 1361 6.29612
r927 1359 1364 4.19742
r928 1359 1361 27.2832
r929 1356 1357 4.19742
r930 1355 1360 4.19742
r931 1355 1357 4.19742
r932 1350 1356 4.19742
r933 1346 1347 2.09871
r934 1340 1346 8.39483
r935 1336 1337 10.4935
r936 1335 1336 1.86552
r937 1331 1332 7.69526
r938 1330 1335 8.62802
r939 1330 1332 3.49785
r940 1325 1326 8.39483
r941 1324 1328 8.39483
r942 1324 1326 4.19742
r943 1321 1322 4.19742
r944 1320 1321 2.09871
r945 1319 1320 8.39483
r946 1318 1319 4.19742
r947 1317 1325 12.5922
r948 1317 1322 2.09871
r949 1314 1315 7.46207
r950 1313 1318 4.19742
r951 1313 1315 3.03147
r952 1307 1308 8.39483
r953 1306 1307 14.691
r954 1305 1306 4.19742
r955 1304 1305 2.09871
r956 1303 1311 8.39483
r957 1303 1308 4.19742
r958 1300 1301 4.19742
r959 1299 1304 4.19742
r960 1299 1301 4.19742
r961 1294 1300 4.19742
r962 1290 1291 10.4935
r963 1289 1290 2.09871
r964 1288 1289 4.19742
r965 1284 1285 6.29612
r966 1283 1288 4.19742
r967 1283 1285 27.2832
r968 1280 1281 4.19742
r969 1279 1284 4.19742
r970 1279 1281 4.19742
r971 1276 1277 7.46207
r972 1275 1280 4.19742
r973 1275 1277 3.03147
r974 1272 1273 10.4935
r975 1271 1272 2.09871
r976 1270 1271 4.19742
r977 1266 1267 6.29612
r978 1265 1270 4.19742
r979 1265 1267 27.2832
r980 1262 1263 4.19742
r981 1261 1266 4.19742
r982 1261 1263 4.19742
r983 1256 1262 4.19742
r984 1252 1253 2.09871
r985 1245 1252 8.39483
r986 1241 1242 8.39483
r987 1240 1241 2.09871
r988 1234 1240 8.39483
r989 1230 1231 2.09871
r990 1223 1230 8.39483
r991 1219 1220 2.09871
r992 1216 1217 7.69526
r993 1215 1219 8.39483
r994 1215 1217 3.49785
r995 1209 1210 6.29612
r996 1208 1213 8.39483
r997 1208 1210 27.2832
r998 1205 1206 4.19742
r999 1204 1209 4.19742
r1000 1204 1206 4.19742
r1001 1199 1205 4.19742
r1002 1195 1196 2.09871
r1003 1191 1192 7.69526
r1004 1190 1195 8.39483
r1005 1190 1192 3.49785
r1006 1187 1188 10.4935
r1007 1186 1187 2.09871
r1008 1185 1186 4.19742
r1009 1181 1182 6.29612
r1010 1180 1185 4.19742
r1011 1180 1182 27.2832
r1012 1177 1178 4.19742
r1013 1176 1181 4.19742
r1014 1176 1178 4.19742
r1015 1171 1177 4.19742
r1016 1167 1168 2.09871
r1017 1163 1164 7.69526
r1018 1162 1167 8.39483
r1019 1162 1164 3.49785
r1020 1158 1160 8.39483
r1021 1155 1156 6.29612
r1022 1154 1155 8.39483
r1023 1153 1154 4.19742
r1024 1152 1158 12.5922
r1025 1152 1156 14.691
r1026 1148 1149 7.46207
r1027 1147 1153 4.19742
r1028 1147 1149 3.03147
r1029 1143 1145 8.39483
r1030 1140 1141 6.29612
r1031 1139 1140 8.39483
r1032 1138 1139 4.19742
r1033 1137 1143 25.1845
r1034 1137 1141 2.09871
r1035 1134 1135 7.46207
r1036 1133 1138 4.19742
r1037 1133 1135 3.03147
r1038 1127 1128 6.29612
r1039 1126 1131 8.39483
r1040 1126 1128 27.2832
r1041 1123 1124 4.19742
r1042 1122 1127 4.19742
r1043 1122 1124 4.19742
r1044 1119 1120 7.46207
r1045 1118 1123 4.19742
r1046 1118 1120 3.03147
r1047 1115 1116 10.4935
r1048 1114 1115 2.09871
r1049 1113 1114 4.19742
r1050 1109 1110 6.29612
r1051 1108 1113 4.19742
r1052 1108 1110 27.2832
r1053 1105 1106 4.19742
r1054 1104 1109 4.19742
r1055 1104 1106 4.19742
r1056 1099 1105 4.19742
r1057 1095 1096 2.09871
r1058 1091 1092 7.69526
r1059 1090 1095 8.39483
r1060 1090 1092 3.49785
r1061 1087 1088 10.4935
r1062 1086 1087 2.09871
r1063 1085 1086 4.19742
r1064 1081 1082 6.29612
r1065 1080 1085 4.19742
r1066 1080 1082 27.2832
r1067 1077 1078 4.19742
r1068 1076 1081 4.19742
r1069 1076 1078 4.19742
r1070 1071 1077 4.19742
r1071 1067 1068 2.09871
r1072 1061 1067 8.39483
r1073 1057 1058 8.39483
r1074 1056 1057 2.09871
r1075 1052 1053 7.69526
r1076 1051 1056 8.39483
r1077 1051 1053 3.49785
r1078 1048 1049 10.4935
r1079 1047 1048 2.09871
r1080 1046 1047 4.19742
r1081 1042 1043 6.29612
r1082 1041 1046 4.19742
r1083 1041 1043 27.2832
r1084 1038 1039 4.19742
r1085 1037 1042 4.19742
r1086 1037 1039 4.19742
r1087 1034 1035 7.46207
r1088 1033 1038 4.19742
r1089 1033 1035 3.03147
r1090 1030 1031 8.39483
r1091 1029 1030 2.09871
r1092 1028 1029 2.09871
r1093 1027 1028 4.19742
r1094 1023 1024 8.39483
r1095 1022 1023 2.09871
r1096 1021 1022 4.19742
r1097 1020 1027 4.19742
r1098 1020 1024 18.8884
r1099 1017 1018 4.19742
r1100 1016 1021 4.19742
r1101 1016 1018 4.19742
r1102 1011 1017 4.19742
r1103 1007 1008 2.09871
r1104 1001 1007 8.39483
r1105 999 1388 2.09871
r1106 998 1367 2.09871
r1107 997 1337 1.16595
r1108 996 1291 2.09871
r1109 995 1331 3.49785
r1110 995 1328 2.09871
r1111 994 1347 9.32759
r1112 993 1168 9.32759
r1113 992 1276 4.19742
r1114 992 1273 2.09871
r1115 991 1314 4.19742
r1116 991 1311 2.09871
r1117 990 1163 3.49785
r1118 990 1160 2.09871
r1119 989 1253 9.32759
r1120 988 1148 4.19742
r1121 988 1145 2.09871
r1122 987 1242 0.932759
r1123 986 1220 9.32759
r1124 985 1231 9.32759
r1125 984 1216 3.49785
r1126 984 1213 2.09871
r1127 983 1134 4.19742
r1128 983 1131 2.09871
r1129 982 1058 0.932759
r1130 981 1196 9.32759
r1131 980 1052 3.49785
r1132 980 1049 2.09871
r1133 979 1191 3.49785
r1134 979 1188 2.09871
r1135 978 1119 4.19742
r1136 978 1116 2.09871
r1137 977 1096 9.32759
r1138 976 1091 3.49785
r1139 976 1088 2.09871
r1140 975 1034 4.19742
r1141 975 1031 2.09871
r1142 974 1068 9.32759
r1143 973 1008 9.32759
r1144 677 730 0.314815
r1145 677 728 0.314815
r1146 677 678 15.9139
r1147 675 1379 96.0901
r1148 675 678 13.2616
r1149 669 729 0.314815
r1150 669 727 0.314815
r1151 669 670 15.9139
r1152 667 1359 96.0901
r1153 667 670 13.2616
r1154 660 1330 96.0901
r1155 660 661 13.2616
r1156 657 726 0.277778
r1157 657 661 15.9139
r1158 653 654 1.76821
r1159 652 725 0.277778
r1160 652 654 15.9139
r1161 650 1370 96.0901
r1162 650 653 11.4934
r1163 644 645 1.76821
r1164 643 724 0.277778
r1165 643 645 15.9139
r1166 641 1350 96.0901
r1167 641 644 11.4934
r1168 634 1283 96.0901
r1169 634 635 13.2616
r1170 631 723 0.314815
r1171 631 722 0.314815
r1172 631 635 15.9139
r1173 626 1324 96.0901
r1174 626 627 13.2616
r1175 623 721 0.277778
r1176 623 627 15.9139
r1177 618 1275 96.0901
r1178 618 619 13.2616
r1179 615 720 0.277778
r1180 615 619 15.9139
r1181 610 1313 96.0901
r1182 610 611 13.2616
r1183 607 719 0.277778
r1184 607 611 15.9139
r1185 603 718 0.277778
r1186 603 604 17.6821
r1187 601 1340 96.0901
r1188 601 604 11.4934
r1189 595 717 0.277778
r1190 595 596 17.6821
r1191 593 1162 96.0901
r1192 593 596 11.4934
r1193 586 1303 96.0901
r1194 586 587 13.2616
r1195 583 716 0.277778
r1196 583 587 15.9139
r1197 578 1265 96.0901
r1198 578 579 13.2616
r1199 575 715 0.314815
r1200 575 714 0.314815
r1201 575 579 15.9139
r1202 571 713 0.277778
r1203 571 572 15.9139
r1204 569 1158 96.0901
r1205 569 572 13.2616
r1206 562 563 1.76821
r1207 561 1294 96.0901
r1208 561 563 11.4934
r1209 558 712 0.277778
r1210 558 562 15.9139
r1211 553 554 1.76821
r1212 552 1256 96.0901
r1213 552 554 11.4934
r1214 549 711 0.277778
r1215 549 553 15.9139
r1216 545 710 0.277778
r1217 545 546 17.6821
r1218 543 1245 96.0901
r1219 543 546 11.4934
r1220 537 709 0.277778
r1221 537 538 15.9139
r1222 535 1147 96.0901
r1223 535 538 13.2616
r1224 529 708 0.277778
r1225 529 530 15.9139
r1226 527 1143 96.0901
r1227 527 530 13.2616
r1228 520 1234 96.0901
r1229 520 521 11.4934
r1230 517 707 0.277778
r1231 517 521 17.6821
r1232 512 1215 96.0901
r1233 512 513 11.4934
r1234 509 706 0.277778
r1235 509 513 17.6821
r1236 505 705 0.277778
r1237 505 506 17.6821
r1238 503 1223 96.0901
r1239 503 506 11.4934
r1240 497 704 0.277778
r1241 497 498 15.9139
r1242 495 1133 96.0901
r1243 495 498 13.2616
r1244 488 1208 96.0901
r1245 488 489 13.2616
r1246 485 703 0.277778
r1247 485 489 15.9139
r1248 481 702 0.277778
r1249 481 482 15.9139
r1250 479 1126 96.0901
r1251 479 482 13.2616
r1252 472 473 1.76821
r1253 471 1051 96.0901
r1254 471 473 11.4934
r1255 468 701 0.277778
r1256 468 472 15.9139
r1257 463 464 1.76821
r1258 462 1199 96.0901
r1259 462 464 11.4934
r1260 459 700 0.277778
r1261 459 463 15.9139
r1262 455 456 1.76821
r1263 454 699 0.277778
r1264 454 456 15.9139
r1265 452 1190 96.0901
r1266 452 455 11.4934
r1267 446 698 0.277778
r1268 446 447 15.9139
r1269 444 1118 96.0901
r1270 444 447 13.2616
r1271 437 1041 96.0901
r1272 437 438 13.2616
r1273 434 697 0.314815
r1274 434 696 0.314815
r1275 434 438 15.9139
r1276 430 695 0.314815
r1277 430 693 0.314815
r1278 430 431 15.9139
r1279 428 1180 96.0901
r1280 428 431 13.2616
r1281 422 694 0.314815
r1282 422 692 0.314815
r1283 422 423 15.9139
r1284 420 1108 96.0901
r1285 420 423 13.2616
r1286 413 414 1.76821
r1287 412 1090 96.0901
r1288 412 414 11.4934
r1289 409 691 0.277778
r1290 409 413 15.9139
r1291 404 1033 96.0901
r1292 404 405 13.2616
r1293 401 690 0.277778
r1294 401 405 15.9139
r1295 397 398 1.76821
r1296 396 689 0.277778
r1297 396 398 15.9139
r1298 394 1171 96.0901
r1299 394 397 11.4934
r1300 388 389 1.76821
r1301 387 688 0.277778
r1302 387 389 15.9139
r1303 385 1099 96.0901
r1304 385 388 11.4934
r1305 378 1080 96.0901
r1306 378 379 13.2616
r1307 375 687 0.314815
r1308 375 685 0.314815
r1309 375 379 15.9139
r1310 370 1020 96.0901
r1311 370 371 13.2616
r1312 367 686 0.314815
r1313 367 684 0.314815
r1314 367 371 15.9139
r1315 362 1071 96.0901
r1316 362 363 13.2616
r1317 359 683 0.277778
r1318 359 363 15.9139
r1319 355 682 0.277778
r1320 355 356 17.6821
r1321 353 1061 96.0901
r1322 353 356 11.4934
r1323 346 1011 96.0901
r1324 346 347 13.2616
r1325 343 681 0.277778
r1326 343 347 15.9139
r1327 339 680 0.277778
r1328 339 340 17.6821
r1329 337 1001 96.0901
r1330 337 340 11.4934
r1331 329 330 51.2835
r1332 328 329 37.2971
r1333 327 328 37.2971
r1334 326 327 51.2835
r1335 325 326 74.5942
r1336 324 325 51.2835
r1337 323 1379 9.65625
r1338 323 675 0.294702
r1339 323 330 37.2971
r1340 320 321 51.2835
r1341 319 1375 9.65625
r1342 319 324 37.2971
r1343 319 321 37.2971
r1344 311 312 51.2835
r1345 310 311 74.5942
r1346 309 310 51.2835
r1347 308 309 74.5942
r1348 307 308 51.2835
r1349 306 1359 9.65625
r1350 306 667 0.294702
r1351 306 312 37.2971
r1352 303 304 51.2835
r1353 302 1355 9.65625
r1354 302 307 37.2971
r1355 302 304 37.2971
r1356 295 1340 28.9688
r1357 287 288 51.2835
r1358 286 287 37.2971
r1359 285 286 37.2971
r1360 284 285 51.2835
r1361 281 282 51.2835
r1362 280 281 9.32428
r1363 279 280 65.2699
r1364 278 279 51.2835
r1365 277 1317 9.65625
r1366 277 284 37.2971
r1367 277 282 37.2971
r1368 271 272 51.2835
r1369 270 271 37.2971
r1370 269 270 37.2971
r1371 268 269 51.2835
r1372 267 268 74.5942
r1373 266 267 51.2835
r1374 265 266 9.32428
r1375 262 263 51.2835
r1376 261 1299 9.65625
r1377 261 265 27.9728
r1378 261 263 37.2971
r1379 254 1245 28.9688
r1380 247 248 51.2835
r1381 246 247 74.5942
r1382 245 246 51.2835
r1383 244 245 74.5942
r1384 243 244 51.2835
r1385 240 241 51.2835
r1386 239 1279 9.65625
r1387 239 243 37.2971
r1388 239 241 37.2971
r1389 236 237 51.2835
r1390 232 233 51.2835
r1391 231 232 74.5942
r1392 230 231 51.2835
r1393 229 230 74.5942
r1394 228 229 51.2835
r1395 225 226 51.2835
r1396 224 1261 9.65625
r1397 224 228 37.2971
r1398 224 226 37.2971
r1399 219 1234 28.9688
r1400 212 1223 28.9688
r1401 204 205 51.2835
r1402 203 204 74.5942
r1403 202 203 51.2835
r1404 201 202 74.5942
r1405 200 201 51.2835
r1406 197 198 51.2835
r1407 196 1204 9.65625
r1408 196 200 37.2971
r1409 196 198 37.2971
r1410 188 189 51.2835
r1411 187 1190 28.9688
r1412 187 452 0.294702
r1413 187 189 289.053
r1414 184 185 51.2835
r1415 183 184 74.5942
r1416 182 183 51.2835
r1417 181 182 74.5942
r1418 180 181 51.2835
r1419 179 1180 9.65625
r1420 179 428 0.294702
r1421 179 188 37.2971
r1422 179 185 37.2971
r1423 176 177 51.2835
r1424 175 1176 9.65625
r1425 175 180 37.2971
r1426 175 177 37.2971
r1427 168 1162 28.9688
r1428 168 593 0.294702
r1429 165 166 51.2835
r1430 162 163 51.2835
r1431 161 162 74.5942
r1432 160 161 51.2835
r1433 159 160 74.5942
r1434 158 159 51.2835
r1435 157 1152 9.65625
r1436 157 165 37.2971
r1437 157 163 37.2971
r1438 155 1147 9.65625
r1439 155 535 0.294702
r1440 155 158 37.2971
r1441 152 153 51.2835
r1442 151 152 74.5942
r1443 150 151 51.2835
r1444 147 148 51.2835
r1445 146 147 74.5942
r1446 145 146 51.2835
r1447 144 1137 9.65625
r1448 144 150 37.2971
r1449 144 148 37.2971
r1450 140 141 51.2835
r1451 139 140 74.5942
r1452 138 139 51.2835
r1453 137 138 74.5942
r1454 136 137 51.2835
r1455 135 1126 9.65625
r1456 135 479 0.294702
r1457 135 141 37.2971
r1458 132 133 51.2835
r1459 131 1122 9.65625
r1460 131 136 37.2971
r1461 131 133 37.2971
r1462 128 129 51.2835
r1463 125 126 51.2835
r1464 124 125 74.5942
r1465 123 124 51.2835
r1466 122 123 74.5942
r1467 121 122 51.2835
r1468 120 1108 9.65625
r1469 120 420 0.294702
r1470 120 128 37.2971
r1471 120 126 37.2971
r1472 117 118 51.2835
r1473 116 1104 9.65625
r1474 116 121 37.2971
r1475 116 118 37.2971
r1476 109 1061 28.9688
r1477 104 1001 28.9688
r1478 97 98 51.2835
r1479 93 94 51.2835
r1480 92 93 74.5942
r1481 91 92 51.2835
r1482 90 91 74.5942
r1483 89 90 51.2835
r1484 86 87 51.2835
r1485 85 1076 9.65625
r1486 85 89 37.2971
r1487 85 87 37.2971
r1488 76 77 51.2835
r1489 72 73 51.2835
r1490 71 72 74.5942
r1491 70 71 51.2835
r1492 69 70 74.5942
r1493 68 69 51.2835
r1494 65 66 51.2835
r1495 64 1037 9.65625
r1496 64 68 37.2971
r1497 64 66 37.2971
r1498 61 62 37.2971
r1499 60 61 51.2835
r1500 56 57 51.2835
r1501 55 56 74.5942
r1502 54 55 51.2835
r1503 53 54 9.32428
r1504 52 53 65.2699
r1505 51 52 51.2835
r1506 48 49 51.2835
r1507 47 1016 9.65625
r1508 47 51 37.2971
r1509 47 49 37.2971
r1510 40 1330 9.65625
r1511 40 660 0.294702
r1512 39 650 0.294702
r1513 39 320 37.2971
r1514 38 641 0.294702
r1515 38 303 37.2971
r1516 37 1283 9.65625
r1517 37 634 0.294702
r1518 37 248 37.2971
r1519 36 626 0.294702
r1520 36 40 251.755
r1521 36 288 37.2971
r1522 35 618 0.294702
r1523 35 240 37.2971
r1524 35 237 289.053
r1525 34 610 0.294702
r1526 34 278 37.2971
r1527 34 275 228.445
r1528 33 601 0.294702
r1529 33 295 0.134044
r1530 31 1303 9.65625
r1531 31 586 0.294702
r1532 31 275 23.3107
r1533 31 272 37.2971
r1534 30 1265 9.65625
r1535 30 578 0.294702
r1536 30 236 37.2971
r1537 30 233 37.2971
r1538 29 569 0.294702
r1539 29 168 251.755
r1540 29 166 37.2971
r1541 28 561 0.294702
r1542 28 262 37.2971
r1543 27 552 0.294702
r1544 27 225 37.2971
r1545 26 543 0.294702
r1546 26 254 0.134044
r1547 24 527 0.294702
r1548 24 155 251.755
r1549 24 153 37.2971
r1550 23 520 0.294702
r1551 23 219 0.134044
r1552 22 512 0.294702
r1553 21 503 0.294702
r1554 21 212 0.134044
r1555 20 495 0.294702
r1556 20 145 37.2971
r1557 20 135 251.755
r1558 19 1208 9.65625
r1559 19 488 0.294702
r1560 19 22 251.755
r1561 19 205 37.2971
r1562 17 1051 28.9688
r1563 17 471 0.294702
r1564 17 77 289.053
r1565 16 462 0.294702
r1566 16 197 37.2971
r1567 14 444 0.294702
r1568 14 132 37.2971
r1569 14 129 289.053
r1570 13 1041 9.65625
r1571 13 437 0.294702
r1572 13 76 37.2971
r1573 13 73 37.2971
r1574 10 1090 28.9688
r1575 10 412 0.294702
r1576 10 98 289.053
r1577 9 404 0.294702
r1578 9 65 37.2971
r1579 9 62 251.755
r1580 8 394 0.294702
r1581 8 176 37.2971
r1582 7 385 0.294702
r1583 7 117 37.2971
r1584 6 1080 9.65625
r1585 6 378 0.294702
r1586 6 97 37.2971
r1587 6 94 37.2971
r1588 5 1020 9.65625
r1589 5 370 0.294702
r1590 5 60 37.2971
r1591 5 57 37.2971
r1592 4 362 0.294702
r1593 4 86 37.2971
r1594 3 353 0.294702
r1595 3 109 0.134044
r1596 2 346 0.294702
r1597 2 48 37.2971
r1598 1 337 0.294702
r1599 1 104 0.134044
.ends

.subckt PM_NEURON_OPT_VDD 1 2 3 4 5 6 11 15 20 21 24 26 27 28 31 32 33 35 36 38
+ 39 40 41 43 50 51 67 85 91 112 119 242 261 280 306 313 366 382 402 410 430 439
+ 465 473 485 489 497 513 521 548 560 564 572 596 604 612 638 650 658 670 678
+ 706 714 726 735 752 760 768 776 783 784 785 786 787 788 789 790 791 792 793
+ 794 795 796 797 798 799 800 801 802 803 804 805 806 807 808 809 810 811 812
+ 813 814 815 816 817 818 819 820 821 822 823 824 825 826 827 828 829 830 831
+ 832 833 989 991 1080 1081 1082 1083 1084 1085 1086 1087 1088 1089 1090 1091
+ 1092 1093 1094 1095 1096 1097 1098 1099 1100 1101 1102 1103 1104 1105 1106
c905 1106 0 0.00161031f
c906 1104 0 3.78905e-19
c907 1103 0 3.27989e-19
c908 1101 0 6.55616e-19
c909 1100 0 0.0011166f
c910 1096 0 0.00134136f
c911 1094 0 3.08325e-19
c912 1093 0 5.21792e-19
c913 1092 0 6.38253e-19
c914 1089 0 1.79065e-19
c915 1088 0 3.91983e-19
c916 1084 0 6.63082e-20
c917 1081 0 0.00113249f
c918 1080 0 9.09848e-19
c919 833 0 0.00166254f
c920 832 0 0.00166254f
c921 829 0 0.0377265f
c922 828 0 0.0378563f
c923 827 0 0.0374852f
c924 826 0 0.00166254f
c925 823 0 0.0376897f
c926 822 0 0.0378523f
c927 821 0 0.0372885f
c928 820 0 0.0374198f
c929 819 0 0.00166295f
c930 815 0 0.037681f
c931 814 0 0.0377115f
c932 813 0 0.0375125f
c933 812 0 0.0374389f
c934 810 0 0.0374985f
c935 809 0 0.037654f
c936 808 0 0.0375125f
c937 807 0 0.0374389f
c938 804 0 0.0374985f
c939 803 0 0.0377438f
c940 802 0 0.0375458f
c941 801 0 0.037519f
c942 800 0 0.00166295f
c943 799 0 0.00166295f
c944 798 0 0.00166295f
c945 794 0 0.0374985f
c946 793 0 0.037681f
c947 792 0 0.0376689f
c948 791 0 0.0374471f
c949 790 0 0.00166295f
c950 789 0 0.00186152f
c951 786 0 0.0377362f
c952 785 0 0.0376408f
c953 784 0 0.0377392f
c954 783 0 0.0376401f
c955 776 0 5.43346e-19
c956 768 0 5.46616e-19
c957 760 0 0.00250524f
c958 752 0 0.00394231f
c959 735 0 0.00338623f
c960 726 0 0.00231801f
c961 714 0 0.00162142f
c962 706 0 0.00173547f
c963 678 0 0.00261076f
c964 670 0 0.0022356f
c965 658 0 0.00161139f
c966 650 0 0.00161488f
c967 638 0 0.00441468f
c968 612 0 0.00243035f
c969 604 0 0.00225465f
c970 596 0 0.00291552f
c971 572 0 0.00259213f
c972 564 0 0.00337444f
c973 560 0 0.00162033f
c974 548 0 0.00294151f
c975 521 0 0.00201297f
c976 513 0 0.00298021f
c977 497 0 0.0011699f
c978 489 0 9.14757e-19
c979 485 0 0.00161139f
c980 473 0 0.0026044f
c981 465 0 0.00395272f
c982 439 0 0.00297568f
c983 430 0 0.00190794f
c984 410 0 0.00163069f
c985 402 0 0.00162872f
c986 382 0 0.00255575f
c987 366 0 0.00231125f
c988 313 0 0.0376895f
c989 306 0 0.00120134f
c990 280 0 0.0329691f
c991 261 0 0.00116919f
c992 242 0 0.00586643f
c993 119 0 0.0223461f
c994 112 0 8.43917e-19
c995 91 0 0.041831f
c996 85 0 5.36966e-19
c997 67 0 0.00106454f
c998 51 0 0.0176946f
c999 50 0 0.0165696f
c1000 43 0 0.00109817f
c1001 41 0 0.00282969f
c1002 40 0 0.00363844f
c1003 39 0 0.00575368f
c1004 38 0 0.0669129f
c1005 36 0 0.00127449f
c1006 35 0 9.24826e-19
c1007 33 0 0.00339625f
c1008 32 0 0.00301546f
c1009 31 0 0.00604556f
c1010 28 0 0.00250223f
c1011 27 0 0.0223827f
c1012 26 0 0.00624453f
c1013 24 0 0.00125718f
c1014 21 0 0.00302459f
c1015 20 0 0.0198126f
c1016 15 0 8.35299e-19
c1017 11 0 0.00294758f
c1018 6 0 8.9888e-19
c1019 5 0 6.74248e-19
c1020 4 0 0.00290704f
c1021 3 0 0.00617791f
c1022 2 0 0.00284979f
c1023 1 0 0.00618528f
r1024 1455 1456 10.4935
r1025 1454 1455 2.09871
r1026 1453 1454 8.16164
r1027 1450 1453 0.23319
r1028 1448 1450 25.1845
r1029 1445 1448 12.5922
r1030 1445 1446 2.09871
r1031 1440 1446 10.4935
r1032 1436 1437 10.4935
r1033 1435 1436 2.09871
r1034 1434 1435 8.16164
r1035 1430 1434 0.23319
r1036 1430 1431 12.5922
r1037 1428 1431 12.5922
r1038 1425 1428 12.5922
r1039 1425 1426 2.09871
r1040 1420 1426 10.4935
r1041 1409 1410 10.4935
r1042 1408 1409 1.86552
r1043 1404 1405 7.22888
r1044 1403 1408 8.62802
r1045 1403 1405 3.96423
r1046 1400 1401 8.39483
r1047 1399 1400 4.19742
r1048 1398 1399 8.39483
r1049 1394 1395 8.39483
r1050 1393 1394 0.23319
r1051 1392 1398 12.5922
r1052 1392 1395 6.29612
r1053 1389 1390 7.46207
r1054 1388 1393 10.2603
r1055 1388 1390 3.03147
r1056 1384 1386 8.39483
r1057 1382 1384 25.1845
r1058 1379 1382 12.5922
r1059 1379 1380 2.09871
r1060 1374 1380 10.4935
r1061 1370 1371 10.4935
r1062 1369 1370 2.09871
r1063 1368 1369 8.16164
r1064 1364 1365 8.39483
r1065 1363 1368 0.23319
r1066 1363 1365 4.19742
r1067 1360 1364 12.5922
r1068 1360 1361 6.29612
r1069 1357 1358 0.23319
r1070 1356 1361 6.29612
r1071 1356 1358 2.09871
r1072 1353 1354 7.46207
r1073 1352 1357 10.2603
r1074 1352 1354 3.03147
r1075 1349 1350 8.39483
r1076 1348 1349 2.09871
r1077 1347 1348 2.09871
r1078 1346 1347 8.16164
r1079 1342 1346 0.23319
r1080 1342 1343 18.8884
r1081 1339 1343 6.29612
r1082 1339 1340 2.3319
r1083 1336 1340 10.2603
r1084 1336 1337 2.09871
r1085 1331 1337 10.4935
r1086 1305 1306 1.39914
r1087 1304 1306 11.1931
r1088 1299 1302 8.39483
r1089 1299 1300 18.8884
r1090 1296 1300 6.29612
r1091 1296 1297 2.3319
r1092 1293 1297 10.2603
r1093 1293 1294 2.09871
r1094 1288 1294 10.4935
r1095 1282 1283 1.39914
r1096 1281 1283 11.1931
r1097 1278 1279 8.39483
r1098 1277 1278 2.09871
r1099 1276 1277 2.09871
r1100 1275 1276 8.16164
r1101 1271 1272 8.62802
r1102 1270 1275 0.23319
r1103 1270 1272 6.29612
r1104 1268 1271 10.2603
r1105 1265 1268 12.5922
r1106 1265 1266 2.09871
r1107 1260 1266 10.4935
r1108 1254 1255 11.1931
r1109 1250 1252 20.9871
r1110 1247 1250 12.5922
r1111 1247 1248 14.691
r1112 1243 1244 1.16595
r1113 1242 1243 6.29612
r1114 1241 1242 2.09871
r1115 1240 1248 10.4935
r1116 1240 1244 3.03147
r1117 1237 1238 14.691
r1118 1236 1237 8.62802
r1119 1232 1236 10.2603
r1120 1232 1233 14.691
r1121 1229 1230 1.16595
r1122 1228 1229 6.29612
r1123 1227 1228 2.09871
r1124 1226 1233 10.4935
r1125 1226 1230 3.03147
r1126 1221 1222 8.62802
r1127 1220 1224 8.39483
r1128 1220 1222 6.29612
r1129 1218 1221 10.2603
r1130 1215 1218 12.5922
r1131 1215 1216 2.09871
r1132 1212 1213 7.46207
r1133 1211 1216 10.4935
r1134 1211 1213 3.03147
r1135 1208 1209 10.4935
r1136 1207 1208 2.09871
r1137 1206 1207 8.16164
r1138 1203 1206 0.23319
r1139 1201 1203 25.1845
r1140 1198 1201 12.5922
r1141 1198 1199 2.09871
r1142 1193 1199 10.4935
r1143 1187 1188 11.1931
r1144 1184 1185 8.39483
r1145 1183 1184 2.09871
r1146 1182 1183 2.09871
r1147 1181 1182 8.16164
r1148 1177 1181 0.23319
r1149 1177 1178 18.8884
r1150 1174 1178 6.29612
r1151 1174 1175 2.3319
r1152 1171 1175 10.2603
r1153 1171 1172 2.09871
r1154 1166 1172 10.4935
r1155 1153 1154 11.1931
r1156 1150 1151 10.4935
r1157 1149 1150 2.09871
r1158 1148 1149 8.16164
r1159 1145 1148 0.23319
r1160 1143 1145 25.1845
r1161 1140 1143 12.5922
r1162 1140 1141 2.09871
r1163 1137 1138 7.46207
r1164 1136 1141 10.4935
r1165 1136 1138 3.03147
r1166 1133 1134 8.39483
r1167 1132 1133 2.09871
r1168 1131 1132 2.09871
r1169 1130 1131 8.16164
r1170 1126 1130 0.23319
r1171 1126 1127 18.8884
r1172 1123 1127 6.29612
r1173 1123 1124 2.3319
r1174 1120 1124 10.2603
r1175 1120 1121 2.09871
r1176 1115 1121 10.4935
r1177 1106 1456 2.56509
r1178 1105 1437 2.56509
r1179 1104 1410 2.09871
r1180 1103 1371 2.56509
r1181 1102 1404 3.03147
r1182 1102 1401 2.56509
r1183 1101 1413 12.5922
r1184 1100 1254 12.5922
r1185 1099 1353 3.73104
r1186 1099 1350 2.56509
r1187 1098 1389 3.73104
r1188 1098 1386 2.56509
r1189 1097 1255 3.03147
r1190 1097 1252 2.56509
r1191 1096 1324 12.5922
r1192 1095 1241 1.63233
r1193 1095 1238 2.56509
r1194 1094 1317 12.5922
r1195 1093 1304 12.5922
r1196 1092 1310 12.5922
r1197 1091 1305 1.63233
r1198 1091 1302 2.56509
r1199 1090 1227 1.63233
r1200 1090 1224 2.56509
r1201 1089 1153 12.5922
r1202 1088 1281 12.5922
r1203 1087 1154 3.03147
r1204 1087 1151 2.56509
r1205 1086 1282 1.63233
r1206 1086 1279 2.56509
r1207 1085 1212 3.73104
r1208 1085 1209 2.56509
r1209 1084 1187 12.5922
r1210 1083 1188 3.03147
r1211 1083 1185 2.56509
r1212 1082 1137 3.73104
r1213 1082 1134 2.56509
r1214 1081 1159 12.5922
r1215 1080 1108 12.5922
r1216 779 1450 96.0901
r1217 779 780 13.2616
r1218 776 833 0.185185
r1219 776 780 23.8708
r1220 771 1430 96.0901
r1221 771 772 13.2616
r1222 768 832 0.185185
r1223 768 772 23.8708
r1224 763 1448 96.0901
r1225 763 764 13.2616
r1226 760 831 0.185185
r1227 760 764 23.8708
r1228 755 1428 96.0901
r1229 755 756 13.2616
r1230 752 830 0.185185
r1231 752 756 23.8708
r1232 748 829 0.185185
r1233 748 749 24.4602
r1234 746 1403 96.0901
r1235 746 749 12.6722
r1236 739 740 0.589404
r1237 738 1440 96.0901
r1238 738 740 12.6722
r1239 735 828 0.185185
r1240 735 739 23.8708
r1241 730 731 0.589404
r1242 729 1420 96.0901
r1243 729 731 12.6722
r1244 726 827 0.185185
r1245 726 730 23.8708
r1246 722 826 0.185185
r1247 722 723 23.8708
r1248 720 1363 96.0901
r1249 720 723 13.2616
r1250 714 825 0.185185
r1251 714 715 23.8708
r1252 712 1360 96.0901
r1253 712 715 13.2616
r1254 706 824 0.185185
r1255 706 707 23.8708
r1256 704 1392 96.0901
r1257 704 707 13.2616
r1258 698 823 0.185185
r1259 698 699 23.8708
r1260 696 1352 96.0901
r1261 696 699 13.2616
r1262 690 822 0.185185
r1263 690 691 23.8708
r1264 688 1388 96.0901
r1265 688 691 13.2616
r1266 681 1413 96.0901
r1267 681 682 12.6722
r1268 678 821 0.185185
r1269 678 682 24.4602
r1270 673 1254 96.0901
r1271 673 674 12.6722
r1272 670 820 0.185185
r1273 670 674 24.4602
r1274 666 819 0.185185
r1275 666 667 23.8708
r1276 664 1342 96.0901
r1277 664 667 13.2616
r1278 658 818 0.185185
r1279 658 659 23.8708
r1280 656 1382 96.0901
r1281 656 659 13.2616
r1282 650 817 0.185185
r1283 650 651 23.8708
r1284 648 1339 96.0901
r1285 648 651 13.2616
r1286 641 1247 96.0901
r1287 641 642 13.2616
r1288 638 816 0.185185
r1289 638 642 23.8708
r1290 634 635 0.589404
r1291 633 815 0.185185
r1292 633 635 23.8708
r1293 631 1374 96.0901
r1294 631 634 12.6722
r1295 625 626 0.589404
r1296 624 814 0.185185
r1297 624 626 23.8708
r1298 622 1331 96.0901
r1299 622 625 12.6722
r1300 615 1324 96.0901
r1301 615 616 12.6722
r1302 612 813 0.185185
r1303 612 616 24.4602
r1304 607 1240 96.0901
r1305 607 608 13.2616
r1306 604 812 0.185185
r1307 604 608 23.8708
r1308 599 1232 96.0901
r1309 599 600 13.2616
r1310 596 811 0.185185
r1311 596 600 23.8708
r1312 592 810 0.185185
r1313 592 593 24.4602
r1314 590 1317 96.0901
r1315 590 593 12.6722
r1316 584 809 0.185185
r1317 584 585 24.4602
r1318 582 1304 96.0901
r1319 582 585 12.6722
r1320 575 1310 96.0901
r1321 575 576 12.6722
r1322 572 808 0.185185
r1323 572 576 24.4602
r1324 567 1226 96.0901
r1325 567 568 13.2616
r1326 564 807 0.185185
r1327 564 568 23.8708
r1328 560 806 0.185185
r1329 560 561 23.8708
r1330 558 1296 96.0901
r1331 558 561 13.2616
r1332 551 1218 96.0901
r1333 551 552 13.2616
r1334 548 805 0.185185
r1335 548 552 23.8708
r1336 544 545 0.589404
r1337 543 804 0.185185
r1338 543 545 23.8708
r1339 541 1153 96.0901
r1340 541 544 12.6722
r1341 535 536 0.589404
r1342 534 803 0.185185
r1343 534 536 23.8708
r1344 532 1288 96.0901
r1345 532 535 12.6722
r1346 525 526 0.589404
r1347 524 1281 96.0901
r1348 524 526 12.6722
r1349 521 802 0.185185
r1350 521 525 23.8708
r1351 516 1211 96.0901
r1352 516 517 13.2616
r1353 513 801 0.185185
r1354 513 517 23.8708
r1355 509 800 0.185185
r1356 509 510 23.8708
r1357 507 1145 96.0901
r1358 507 510 13.2616
r1359 500 1270 96.0901
r1360 500 501 13.2616
r1361 497 799 0.185185
r1362 497 501 23.8708
r1363 492 1203 96.0901
r1364 492 493 13.2616
r1365 489 798 0.185185
r1366 489 493 23.8708
r1367 485 797 0.185185
r1368 485 486 23.8708
r1369 483 1143 96.0901